/*--------------------------------*- C++ -*----------------------------------*\
| =========                 |                                                 |
| \\      /  F ield         | OpenFOAM: The Open Source CFD Toolbox           |
|  \\    /   O peration     | Version:  5                                     |
|   \\  /    A nd           | Web:      www.OpenFOAM.org                      |
|    \\/     M anipulation  |                                                 |
\*---------------------------------------------------------------------------*/
FoamFile
{
    version     2.0;
    format      ascii;
    class       dictionary;
    location    "system";
    object      controlDict;

}
// * * * * * * * * * * * * * * * * * * * * * * * * * * * * * * * * * * * * * //


application     interFoam;

startFrom       latestTime;

startTime       0;

stopAt          endTime;

endTime         10;

deltaT          1e-04;

writeControl    adjustableRunTime;

writeInterval   0.1;

purgeWrite      0;

writeFormat     ascii;

writePrecision  6;

writeCompression uncompressed;

timeFormat      general;

timePrecision   6;

runTimeModifiable no;

adjustTimeStep  no;

maxCo           0.3;
maxAlphaCo      0.3;

maxDeltaT       0.1;

libs            ("libwaves.so");

functions
{
    surfaces
    {
        type            surfaces;
        libs            ("libsampling.so");

        writeControl    adjustableRunTime;
        writeInterval   1e-01;

        timeStart       0;

        surfaceFormat   vtk;
        fields          (alpha.water);

        interpolationScheme cellPointFace;

        surfaces
        (
            interface
            {
                type            isoSurface;
                isoField        alpha.water;
                isoValue        0.5;
                interpolate     true;
            }
        );
    }
}

// ************************************************************************* //
