/*--------------------------------*- C++ -*----------------------------------*\
  =========                 |
  \\      /  F ield         | OpenFOAM: The Open Source CFD Toolbox
   \\    /   O peration     | Website:  https://openfoam.org
    \\  /    A nd           | Version:  6
     \\/     M anipulation  |
\*---------------------------------------------------------------------------*/
FoamFile
{
    version     2.0;
    format      ascii;
    class       polyBoundaryMesh;
    location    "constant/polyMesh";
    object      boundary;
}
// * * * * * * * * * * * * * * * * * * * * * * * * * * * * * * * * * * * * * //

6
(
    inlet
    {
        type            patch;
        nFaces          120;
        startFace       87692;
    }
    outlet
    {
        type            patch;
        nFaces          120;
        startFace       87812;
    }
    lowerWall
    {
        type            wall;
        inGroups        1(wall);
        nFaces          1960;
        startFace       87932;
    }
    upperWall
    {
        type            wall;
        inGroups        1(wall);
        nFaces          1960;
        startFace       89892;
    }
    frontWall
    {
        type            cyclic;
        inGroups        1(cyclic);
        nFaces          588;
        startFace       91852;
        matchTolerance  0.0001;
        transform       unknown;
        neighbourPatch  backWall;
    }
    backWall
    {
        type            cyclic;
        inGroups        1(cyclic);
        nFaces          588;
        startFace       92440;
        matchTolerance  0.0001;
        transform       unknown;
        neighbourPatch  frontWall;
    }
)

// ************************************************************************* //
